ELEMENTS
N  O  H  C  
END
SPECIES
N2                O2                H                 OH                O                 H2                H2O               HO2               
H2O2              CO                CO2               CH                CHO               CH2OH             TXCH2             CH3               
CH2O              CH3O              CH4               C2H6              C2H2              C2H3              C2H4              C2H5              
C3H6              NXC3H7            PXC4H9            PXC5H11           PXC7H15           SXC7H15           NXC7H16           PC7H15O2          
PHEOOHX2          OOC7OOH           HOOC7OOH          OC7OOH            OC7H13O           
END
REACTIONS
O2+H<=>OH+O                              2.000e+14    0.000  16802.10
H2+OH<=>H2O+H                            1.000e+08    1.600   3298.28
2OH<=>H2O+O                              1.500e+09    1.140    100.38
H+OH+M<=>H2O+M                           2.200e+22   -2.000      0.00
N2/0.40/ O2/0.40/ H/0.00/ OH/0.00/ O/0.00/ H2O/6.50/ HO2/0.00/ H2O2/0.00/ 
CO/0.75/ CO2/0.00/ CH/0.00/ CHO/0.00/ CH2OH/0.00/ TXCH2/0.00/ CH3/0.00/ 
CH2O/0.00/ CH3O/0.00/ CH4/0.00/ C2H6/0.00/ C2H2/0.00/ C2H3/0.00/ C2H4/0.00/ 
C2H5/0.00/ C3H6/0.00/ NXC3H7/0.00/ PXC4H9/0.00/ PXC5H11/0.00/ PXC7H15/0.00/ 
SXC7H15/0.00/ NXC7H16/3.00/ PC7H15O2/0.00/ PHEOOHX2/0.00/ OOC7OOH/0.00/ 
HOOC7OOH/0.00/ OC7OOH/0.00/ OC7H13O/0.00/ 
H+O2+M=>HO2+M                            2.300e+18   -0.800      0.00
N2/0.40/ O2/0.40/ H/0.00/ OH/0.00/ O/0.00/ H2O/6.50/ HO2/0.00/ H2O2/0.00/ 
CO/0.75/ CO2/0.00/ CH/0.00/ CHO/0.00/ CH2OH/0.00/ TXCH2/0.00/ CH3/0.00/ 
CH2O/0.00/ CH3O/0.00/ CH4/0.00/ C2H6/0.00/ C2H2/0.00/ C2H3/0.00/ C2H4/0.00/ 
C2H5/0.00/ C3H6/0.00/ NXC3H7/0.00/ PXC4H9/0.00/ PXC5H11/0.00/ PXC7H15/0.00/ 
SXC7H15/0.00/ NXC7H16/3.00/ PC7H15O2/0.00/ PHEOOHX2/0.00/ OOC7OOH/0.00/ 
HOOC7OOH/0.00/ OC7OOH/0.00/ OC7H13O/0.00/ 
HO2+H=>2OH                               1.500e+14    0.000   1003.82
HO2+OH=>H2O+O2                           6.000e+13    0.000      0.00
2HO2=>H2O2+O2                            2.500e+11    0.000  -1242.83
H2O2+M<=>2OH+M                           4.424e+24   -2.000  50432.12
N2/0.40/ O2/0.40/ H/0.00/ OH/0.00/ O/0.00/ H2O/6.50/ HO2/0.00/ H2O2/0.00/ 
CO/0.75/ CO2/0.00/ CH/0.00/ CHO/0.00/ CH2OH/0.00/ TXCH2/0.00/ CH3/0.00/ 
CH2O/0.00/ CH3O/0.00/ CH4/0.00/ C2H6/0.00/ C2H2/0.00/ C2H3/0.00/ C2H4/0.00/ 
C2H5/0.00/ C3H6/0.00/ NXC3H7/0.00/ PXC4H9/0.00/ PXC5H11/0.00/ PXC7H15/0.00/ 
SXC7H15/0.00/ NXC7H16/3.00/ PC7H15O2/0.00/ PHEOOHX2/0.00/ OOC7OOH/0.00/ 
HOOC7OOH/0.00/ OC7OOH/0.00/ OC7H13O/0.00/ 
CO+OH<=>CO2+H                            6.000e+06    1.500   -740.92
CH+CO2=>CHO+CO                           3.400e+12    0.000    693.12
CH+H2O=>CH2OH                            5.700e+12    0.000   -764.82
CHO+M=>CO+H+M                            7.100e+14    0.000  16802.10
N2/0.40/ O2/0.40/ H/0.00/ OH/0.00/ O/0.00/ H2O/6.50/ HO2/0.00/ H2O2/0.00/ 
CO/0.75/ CO2/0.00/ CH/0.00/ CHO/0.00/ CH2OH/0.00/ TXCH2/0.00/ CH3/0.00/ 
CH2O/0.00/ CH3O/0.00/ CH4/0.00/ C2H6/0.00/ C2H2/0.00/ C2H3/0.00/ C2H4/0.00/ 
C2H5/0.00/ C3H6/0.00/ NXC3H7/0.00/ PXC4H9/0.00/ PXC5H11/0.00/ PXC7H15/0.00/ 
SXC7H15/0.00/ NXC7H16/3.00/ PC7H15O2/0.00/ PHEOOHX2/0.00/ OOC7OOH/0.00/ 
HOOC7OOH/0.00/ OC7OOH/0.00/ OC7H13O/0.00/ 
CHO+H=>CO+H2                             9.000e+13    0.000      0.00
CHO+OH=>CO+H2O                           1.000e+14    0.000      0.00
TXCH2+H=>CH+H2                           6.000e+12    0.000  -1792.54
TXCH2+O2=>CO+OH+H                        1.300e+13    0.000   1481.84
TXCH2+H2=>CH3+H                          7.200e+13    0.000      0.00
CH2O+OH=>CHO+H2O                         3.400e+09    1.200   -454.11
CH3+O=>CH2O+H                            8.430e+13    0.000      0.00
CH3+O2=>CH2O+OH                          3.300e+11    0.000   8938.81
CH3+HO2=>CH3O+OH                         1.800e+13    0.000      0.00
CH3+H=>CH4                               2.108e+14    0.000      0.00
     LOW  /  6.257e+23   -1.800      0.00 /
!     FCCHECK/   0.577      2370      0         0      0         0
     TROE/   0.577     1.00      2370 /
2CH3<=>C2H6                              1.813e+13    0.000      0.00
     LOW  /  1.272e+41   -7.000   2762.91 /
!     FCCHECK/    0.38        73   0.62      1180      0         0
     TROE/    0.62       73      1180        /
CH3O+M=>CH2O+H+M                         5.000e+13    0.000  25095.60
N2/0.40/ O2/0.40/ H/0.00/ OH/0.00/ O/0.00/ H2O/6.50/ HO2/0.00/ H2O2/0.00/ 
CO/0.75/ CO2/0.00/ CH/0.00/ CHO/0.00/ CH2OH/0.00/ TXCH2/0.00/ CH3/0.00/ 
CH2O/0.00/ CH3O/0.00/ CH4/0.00/ C2H6/0.00/ C2H2/0.00/ C2H3/0.00/ C2H4/0.00/ 
C2H5/0.00/ C3H6/0.00/ NXC3H7/0.00/ PXC4H9/0.00/ PXC5H11/0.00/ PXC7H15/0.00/ 
SXC7H15/0.00/ NXC7H16/3.00/ PC7H15O2/0.00/ PHEOOHX2/0.00/ OOC7OOH/0.00/ 
HOOC7OOH/0.00/ OC7OOH/0.00/ OC7H13O/0.00/ 
CH2OH+M=>CH2O+H+M                        5.000e+13    0.000  25095.60
N2/0.40/ O2/0.40/ H/0.00/ OH/0.00/ O/0.00/ H2O/6.50/ HO2/0.00/ H2O2/0.00/ 
CO/0.75/ CO2/0.00/ CH/0.00/ CHO/0.00/ CH2OH/0.00/ TXCH2/0.00/ CH3/0.00/ 
CH2O/0.00/ CH3O/0.00/ CH4/0.00/ C2H6/0.00/ C2H2/0.00/ C2H3/0.00/ C2H4/0.00/ 
C2H5/0.00/ C3H6/0.00/ NXC3H7/0.00/ PXC4H9/0.00/ PXC5H11/0.00/ PXC7H15/0.00/ 
SXC7H15/0.00/ NXC7H16/3.00/ PC7H15O2/0.00/ PHEOOHX2/0.00/ OOC7OOH/0.00/ 
HOOC7OOH/0.00/ OC7OOH/0.00/ OC7H13O/0.00/ 
CH4+OH=>H2O+CH3                          1.600e+07    1.830   2772.47
C2H2+O=>TXCH2+CO                         1.720e+04    2.800    501.91
C2H3=>C2H2+H                             2.000e+14    0.000  39744.26
     LOW  /  1.187e+42   -7.500  45506.69 /
!     FCCHECK/       0         0      0         0   0.35         0
     TROE/    0.35     1.00 10000000.00 10000000.00 /
C2H3+O2=>C2H2+HO2                        1.210e+11    0.000      0.00
C2H3+O2=>CH2O+CHO                        5.420e+12    0.000      0.00
C2H4+OH=>C2H3+H2O                        6.500e+13    0.000   5951.24
C2H4+H=>C2H3+H2                          1.700e+15    0.000  15033.46
C2H5=>C2H4+H                             1.300e+13    0.000  39913.96
     LOW  /  1.000e+16    0.000  30114.72 /
!     FCCHECK/       1     422.8      0         0  0.411      73.4
     TROE/       1     1.00     422.8      73.4 /
C2H5+O2=>C2H4+HO2                        1.100e+10    0.000  -1505.74
C2H6+H=>C2H5+H2                          1.400e+09    1.500   7433.08
C3H6+OH=>C2H5+CH2O                       7.900e+12    0.000      0.00
NXC3H7=>CH3+C2H4                         9.600e+13    0.000  31022.94
NXC3H7<=>H+C3H6                          1.250e+14    0.000  37021.99
NXC3H7+O2=>C3H6+HO2                      1.000e+12    0.000   4995.22
PXC4H9=>C2H5+C2H4                        2.500e+13    0.000  28824.09
PXC5H11=>C2H4+NXC3H7                     3.200e+13    0.000  28417.78
PXC7H15=>PXC5H11+C2H4                    1.500e+13    0.000  28824.09
SXC7H15=>PXC4H9+C3H6                     5.600e+13    0.000  28322.18
NXC7H16=>PXC4H9+NXC3H7                   3.160e+16    0.000  81070.75
NXC7H16+H=>PXC7H15+H2                    5.600e+07    2.000   7695.98
NXC7H16+H=>SXC7H15+H2                    4.378e+07    2.000   4995.22
NXC7H16+OH=>PXC7H15+H2O                  8.610e+09    1.100   1816.44
NXC7H16+OH=>SXC7H15+H2O                  6.500e+09    1.300    693.12
NXC7H16+HO2=>PXC7H15+H2O2                1.120e+13    0.000  19407.27
NXC7H16+HO2=>SXC7H15+H2O2                1.675e+13    0.000  17017.21
NXC7H16+O2=>PXC7H15+HO2                  2.500e+13    0.000  49043.98
NXC7H16+O2=>SXC7H15+HO2                  1.000e+14    0.000  47633.84
PXC7H15+O2<=>PC7H15O2                    2.000e+12    0.000      0.00
     REV / 3.000e+14    0.000  28035.37 /
SXC7H15+O2<=>PC7H15O2                    2.000e+12    0.000      0.00
     REV / 6.600e+14    0.000  28035.37 /
PC7H15O2<=>PHEOOHX2                      2.000e+11    0.000  17017.21
     REV / 1.000e+11    0.000  12500.00 /
PHEOOHX2+O2=>OOC7OOH                     5.000e+11    0.000      0.00
OOC7OOH=>HOOC7OOH                        2.000e+11    0.000  17017.21
HOOC7OOH=>OC7OOH+OH                      1.000e+09    0.000   7504.78
OC7OOH=>OC7H13O+OH                       8.400e+14    0.000  43044.93
OC7H13O=>CH2O+PXC5H11+CO                 2.000e+13    0.000  15009.56
END
