ELEMENTS
N  O  H  
END
SPECIES
N2                O2                H                 OH                O                 H2                H2O               HO2               
H2O2              
END
REACTIONS
O2+H<=>OH+O                              2.000e+14    0.000  16802.10
H2+O<=>OH+H                              5.060e+04    2.670   6285.85
H2+OH<=>H2O+H                            1.000e+08    1.600   3298.28
2OH<=>H2O+O                              1.500e+09    1.140    100.38
2H+M<=>H2+M                              1.800e+18   -1.000      0.00

2O+M<=>O2+M                              2.900e+17   -1.000      0.00
H2O2+OH<=>H2O+HO2                        5.400e+12    0.000   1003.82
END
