!---------------------------------------------------------------------------
!  
!---------------------------------------------------------------------------
ELEMENTS
O H C N Ar He
END
SPECIES
AR              N2              H               H2              O               
O2              OH              H2O             HO2             
H2O2            HCO             CO              CO2             
HE              
END
!---------------------------------------------------------------------------
!  
!---------------------------------------------------------------------------
THERMO ALL
   300.000  1000.000  5000.000
AR                      Ar  1               G   200.000  6000.000  1000.000    1
 2.50000000e+00 0.00000000e+00 0.00000000e+00 0.00000000e+00 0.00000000e+00    2
-7.45375000e+02 4.37967491e+00 2.50000000e+00 0.00000000e+00 0.00000000e+00    3
 0.00000000e+00 0.00000000e+00-7.45375000e+02 4.37967491e+00                   4
N2                      N   2               G   200.000  6000.000  1000.000    1
 2.95257637e+00 1.39690040e-03-4.92631603e-07 7.86010195e-11-4.60755204e-15    2
-9.23948688e+02 5.87188762e+00 3.53100528e+00-1.23660988e-04-5.02999433e-07    3
 2.43530612e-09-1.40881235e-12-1.04697628e+03 2.96747038e+00                   4
H                       H   1               G   200.000  6000.000  1000.000    1
 2.50000000e+00 0.00000000e+00 0.00000000e+00 0.00000000e+00 0.00000000e+00    2
 2.54736600e+04-4.46682850e-01 2.50000000e+00 0.00000000e+00 0.00000000e+00    3
 0.00000000e+00 0.00000000e+00 2.54736600e+04-4.46682850e-01                   4
H2                      H   2               G   200.000  6000.000  1000.000    1
 2.93286575e+00 8.26608026e-04-1.46402364e-07 1.54100414e-11-6.88804800e-16    2
-8.13065581e+02-1.02432865e+00 2.34433112e+00 7.98052075e-03-1.94781510e-05    3
 2.01572094e-08-7.37611761e-12-9.17935173e+02 6.83010238e-01                   4
O                       O   1               G   200.000  6000.000  1000.000    1
 2.54363697e+00-2.73162486e-05-4.19029520e-09 4.95481845e-12-4.79553694e-16    2
 2.92260120e+04 4.92229457e+00 3.16826710e+00-3.27931884e-03 6.64306396e-06    3
-6.12806624e-09 2.11265971e-12 2.91222592e+04 2.05193346e+00                   4
O2                      O   2               G   200.000  6000.000  1000.000    1
 3.66096065e+00 6.56365811e-04-1.41149627e-07 2.05797935e-11-1.29913436e-15    2
-1.21597718e+03 3.41536279e+00 3.78245636e+00-2.99673416e-03 9.84730201e-06    3
-9.68129509e-09 3.24372837e-12-1.06394356e+03 3.65767573e+00                   4
OH                      H   1O   1          G   200.000  6000.000  1000.000    1
 2.83853033e+00 1.10741289e-03-2.94000209e-07 4.20698729e-11-2.42289890e-15    2
 3.69780808e+03 5.84494652e+00 3.99198424e+00-2.40106655e-03 4.61664033e-06    3
-3.87916306e-09 1.36319502e-12 3.36889836e+03-1.03998477e-01                   4
H2O                     H   2O   1          G   200.000  6000.000  1000.000    1
 2.67703890e+00 2.97318160e-03-7.73768890e-07 9.44335140e-11-4.26899910e-15    2
-2.98858940e+04 6.88255000e+00 4.19863520e+00-2.03640170e-03 6.52034160e-06    3
-5.48792690e-09 1.77196800e-12-3.02937260e+04-8.49009010e-01                   4
HO2                     H   1O   2          G   200.000  5000.000  1000.000    1
 4.17228741e+00 1.88117627e-03-3.46277286e-07 1.94657549e-11 1.76256905e-16    2
 3.10206839e+01 2.95767672e+00 4.30179807e+00-4.74912097e-03 2.11582905e-05    3
-2.42763914e-08 9.29225225e-12 2.64018485e+02 3.71666220e+00                   4
H2O2                    H   2O   2          G   200.000  6000.000  1000.000    1
 4.57977305e+00 4.05326003e-03-1.29844730e-06 1.98211400e-10-1.13968792e-14    2
-1.80071775e+04 6.64970694e-01 4.31515149e+00-8.47390622e-04 1.76404323e-05    3
-2.26762944e-08 9.08950158e-12-1.77067437e+04 3.27373319e+00                   4
HCO                     C   1H   1O   1     G   200.000  3500.000  1000.000    1
 2.77217438e+00 4.95695526e-03-2.48445613e-06 5.89161778e-10-5.33508711e-14    2
 4.01191815e+03 9.79834492e+00 4.22118584e+00-3.24392532e-03 1.37799446e-05    3
-1.33144093e-08 4.33768865e-12 3.83956496e+03 3.39437243e+00                   4
CO                      C   1O   1          G   200.000  3500.000  1000.000    1
 2.71518561e+00 2.06252743e-03-9.98825771e-07 2.30053008e-10-2.03647716e-14    2
-1.41518724e+04 7.81868772e+00 3.57953347e+00-6.10353680e-04 1.01681433e-06    3
 9.07005884e-10-9.04424499e-13-1.43440860e+04 3.50840928e+00                   4
CO2                     C   1O   2          G   200.000  3500.000  1000.000    1
 3.85746029e+00 4.41437026e-03-2.21481404e-06 5.23490188e-10-4.72084164e-14    2
-4.87591660e+04 2.27163806e+00 2.35677352e+00 8.98459677e-03-7.12356269e-06    3
 2.45919022e-09-1.43699548e-13-4.83719697e+04 9.90105222e+00                   4
HE                      He  1               G   200.000  6000.000  1000.000    1
 2.50000000e+00 0.00000000e+00 0.00000000e+00 0.00000000e+00 0.00000000e+00    2
-7.45375000e+02 9.28723974e-01 2.50000000e+00 0.00000000e+00 0.00000000e+00    3
 0.00000000e+00 0.00000000e+00-7.45375000e+02 9.28723974e-01                   4
END
!---------------------------------------------------------------------------
!  
!---------------------------------------------------------------------------
REACTIONS
2O+M<=>O2+M                                        1.200E+17   -1.000       0.00
AR/ 0.83/ CO/ 1.75/ CO2/ 3.6/ H2/ 2.4/ H2O/ 15.4/ HE/ 0.83/
H+O+M<=>OH+M                                       9.420E+18   -1.000       0.00
AR/ 0.7/ CO/ 1.75/ CO2/ 3.6/ H2/ 2.0/ H2O/ 12.0/ HE/ 0.7/
H2+O<=>H+OH                                        3.870E+04    2.700    6260.00
HO2+O<=>O2+OH                                      1.568E+13    0.000       0.00
H2O2+O<=>HO2+OH                                    9.630E+06    2.000    4000.00
H+O2(+M)<=>HO2(+M)                                 5.37300E+12    0.440       0.00
     LOW  /  6.64400E+19  -1.400  0.00/
     TROE/   0.5  1e-30  1.0000000000000002e+30  1e+30 /
AR/ 0.53/ CO/ 1.2/ CO2/ 2.4/ H2O/ 12.0/ HE/ 0.53/ O2/ 0.75/
H+O2<=>O+OH                                        2.853E+16   -0.671   17041.00
2H+M<=>H2+M                                        1.835E+18   -1.000       0.00
AR/ 0.63/ CO2/ 0.0/ H2/ 0.0/ H2O/ 0.0/ HE/ 0.63/
2H+H2<=>2H2                                        1.651E+17   -0.600       0.00
2H+H2O<=>H2+H2O                                    1.101E+20   -1.250       0.00
CO2+2H<=>CO2+H2                                    1.009E+21   -2.000       0.00
H+OH+M<=>H2O+M                                     3.059E+22   -2.000       0.00
AR/ 0.38/ CO/ 1.75/ CO2/ 3.6/ H2/ 0.73/ H2O/ 3.65/ HE/ 0.38/
H+HO2<=>H2O+O                                      1.191E+13    0.000     671.00
H+HO2<=>H2+O2                                      3.738E+06    2.120   -1172.00
H+HO2<=>2OH                                        8.329E+13    0.000     635.00
H+H2O2<=>H2+HO2                                    1.210E+07    2.000    5200.00
H+H2O2<=>H2O+OH                                    5.000E+12    0.000    3600.00
H2+OH<=>H+H2O                                      1.974E+08    1.510    3430.00
2OH(+M)<=>H2O2(+M)                                 1.69300E+10    0.869   -2191.00
     LOW  /  2.83700E+11  0.869  -8548.00/
     TROE/   1.0  1e-30  1.0000000000000002e+30  1e+30 /
AR/ 0.67/ CO/ 1.75/ CO2/ 3.6/ H2/ 2.0/ H2O/ 6.0/ HE/ 0.67/
2OH<=>H2O+O                                        4.493E+04    2.400   -2110.00
HO2+OH<=>H2O+O2                                    4.775E+13    0.000    -497.00
H2O2+OH<=>H2O+HO2                                  1.740E+12    0.000     318.00
 DUPLICATE
H2O2+OH<=>H2O+HO2                                  7.590E+13    0.000    7272.00
 DUPLICATE
2HO2<=>H2O2+O2                                     2.600E+11    0.000   -1630.00
 DUPLICATE
2HO2<=>H2O2+O2                                     8.400E+14    0.000   12000.00
 DUPLICATE
O+OH+M<=>HO2+M                                     1.000E+15    0.000       0.00
AR/ 0.7/ CO/ 1.75/ CO2/ 3.6/ H2/ 2.0/ H2O/ 12.0/ HE/ 0.7/
CO+O(+M)<=>CO2(+M)                                 8.98000E+09    0.000    2384.00
     LOW  /  7.72000E+23  -2.790  4191.00/
AR/ 0.7/ CO/ 1.75/ CO2/ 3.6/ H2/ 2.0/ H2O/ 12.0/ HE/ 0.7/
CO+OH<=>CO2+H                                      9.416E+04    2.053    -356.00
 DUPLICATE
CO+OH<=>CO2+H                                      7.693E+12   -0.664     332.00
 DUPLICATE
CO+O2<=>CO2+O                                      1.119E+12    0.000   47700.00
CO+HO2<=>CO2+OH                                    1.570E+05    2.180   17943.00
H+HCO<=>CO+H2                                      2.210E+14    0.000       0.00
HCO+O<=>CO+OH                                      3.000E+13    0.000       0.00
HCO+O<=>CO2+H                                      3.000E+13    0.000       0.00
HCO+OH<=>CO+H2O                                    3.020E+13    0.000       0.00
HCO+O2<=>CO+HO2                                    1.204E+10    0.807    -727.00
HCO+M<=>CO+H+M                                     1.870E+17   -1.000   17000.00
CO/ 1.75/ CO2/ 3.6/ H2/ 2.0/ H2O/ 12.0/
END