! Supplementary material to 
! L. Cai et al. PROCI 2019
! This mechanism has been validated for the oxidation of following species
!
! Gasoline surrogate species: 
! n-Heptane: 		NXC7H16
! i-Octane: 		IXC8H18
! Toluene: 		A1CH3
! Ethanol: 		C2H5OH
!
! C0-C4 Species:
! Hydrogen/Carbon monoxide: H2/CO
! Methane: 		CH4
! Acetylene: 		C2H2
! Ethylene: 		C2H4
! Ethane: 		C2H6
! Propyene:		PXC3H4
! Allene: 		AXC3H4
! Propene:		C3H6
! Propane: 		C3H8 (Only High Temperature Chemistry)
! 1,3-Butadiene:	C4H6
! 
! Aromatic species:
! Benzene: 		A1XC6H6
! Toluene: 		A1CH3
! 1-Methylnaphtalene: 	A2CH3
! Ethylbenzene: 	A1C2H5
! Styrene: 		A1C2H3
! m-xylene: 		A1CH3CH3
!
! Additional species
! Methanol: 		CH3OH
! NOx
ELEMENTS
N  AR C  O  H  HE 
END
SPECIES

! Base chemistry C0-C4
N2                AR                H                 
O2                O                 OH                H2                H2O               HE                HO2               H2O2              
CO                CO2               HCO               C                 CH                TXCH2             CH3               CH2O              
HCCO              C2H               CH2CO             C2H2              SXCH2             CH3OH             CH2OH             CH3O              
CH4               CH3O2             C2H3              C2H4              C2H5              HCCOH             CH2CHO            CH3CHO            
H2C2              C2H5O             NXC3H7            C2H6              C3H8              C3H6              C3H3              PXC3H4            
AXC3H4            SXC3H5            NXC4H3            C2H3CHO           AXC3H5            C2O               C4H4              C3H2              
C3H2O             C4H2              IXC4H3            TXC3H5            C3H5O             C4H               C8H2              C6H2              
C4H6              NXC4H5            IXC4H5            A1XC6H6           

!Inert EGR components
IXCO              IXCO2             IXH2O             IXH2              IXN2

! Methanol and Ethanol
C2H5OH 		  CH3CHOH	    C2H4OH            HOC2H4O2          CH3O2H            O2CHO             
HO2CHO            OCHO              C2H3O1X2          CH3CO             C2H4O2H           C2H5O2                                   

! n-Heptane 
NXC7H16		  

! R
C7H15X1           C7H15X2           C7H15X3           C7H15X4           

! Alkene
C7H14X1           C7H14X2           C7H14X3           

! Alkeny radical
C7H131X3          C7H131X4          C7H131X5          C7H131X6          C7H131X7          C7H132X4          C7H132X5          C7H132X6         
C7H132X7          C7H133X1          C7H133X5          C7H133X6          C7H133X7          

! 
C7H13O1X3         C7H13O2X4         C7H13O3X5           

! RO2
C7H15O2X1         C7H15O2X2         C7H15O2X3         C7H15O2X4         

! RO
C7H15OX1          C7H15OX2          C7H15OX3          C7H15OX4          

! QOOH
C7H14OOH1X2       C7H14OOH2X3       C7H14OOH3X2       C7H14OOH3X4       C7H14OOH4X3       C7H14OOH4X1       C7H14OOH3X1       C7H14OOH1X4       
C7H14OOH3X6       C7H14OOH2X5       C7H14OOH3X5       C7H14OOH2X4       C7H14OOH1X3       C7H14OOH4X2       C7H14OOH1X5       C7H14OOH2X6       
C7H14OOH3X7       

! ROOH
C7H15O2HX1        C7H15O2HX2        C7H15O2HX3        

! Cyclic ether
C7H14O1X2         C7H14O2X3         C7H14O3X4         C7H14O1X3         
C7H14O2X4         C7H14O3X5         C7H14O1X4         C7H14O2X5         C7H14O1X5         C7H14O2X6         

! O2QOOH
C7H14OOH3X1O2     C7H14OOH4X1O2     C7H14OOH1X3O2     C7H14OOH1X4O2     C7H14OOH1X5O2     C7H14OOH2X4O2     C7H14OOH2X5O2     C7H14OOH2X6O2     
C7H14OOH3X5O2     C7H14OOH3X6O2     C7H14OOH3X7O2     C7H14OOH4X2O2     

! KET
NC7KET13          NC7KET14          NC7KET24          NC7KET35          NC7KET42          
NC7KET26          NC7KET37          NC7KET31          NC7KET25          NC7KET36          

! POOH
C7POOH15X7        
C7POOH25X7        C7POOH14X2        C7POOH14X6        C7POOH15X3        C7POOH25X3        C7POOH26X4        C7POOH25X4        C7POOH14X3        

! Hydroperoxyl radical from POOH
C7H131X4OOH       C7H132X5OOH       C7H133X6OOH       C7H133X1OOH       

! Cyclic ether from POOH
C7O24X1OOH        C7O46X1OOH        C7O35X1OOH        C7O57X1OOH        
C7O35X2OOH        C7O57X2OOH        C7O46X2OOH        C7O46X3OOH         

! Ket products
CH2CH2CHO         CH3COCH2          CH2CH2COCH3       
C3H6COCH3X1       NXC4H9COCH2       C2H5COCH2         C2H5COC2H4P       C3H6COC2H5X1      

! Cyclic ether products
NXC3H7COCH2       C2H3COCH3         C2H5COC2H3        
C2H5CO            NXC4H9CO          CH3CHCO           NXC3H7CO                    C2H5CHCO                  

! Aldehyde
C2H5CHO           NXC3H7CHO         NXC4H9CHO

! intermediate species
! C6
C6H13X1           C6H12X1           C6H111X3 
! C5
C5H11X1  	  C5H11X2	    C5H10X1           C5H10X2 	        C5H91X1 	  C5H91X3   	    C5H91X4   	      C5H91X5 	      
C5H92X5 	  C5H81X3 	    C5H11OX1          C5H9O1X3          C5H11O2X1	
!C4
C4H10	          PXC4H9            SXC4H9 	      C4H8X1            C4H8X2		  C4H71X1           C4H71X2           C4H71X3           
C4H71X4      
C4H7O                                              
PXC4H9O           PXC4H8OH          C4H8OHX1O2        PXC4H9O2          C4H8OOH1X3        C4H8O1X3          C4H8OOH1X3O2      
NC4KET13
!
C2H5O2H           NXC3H7O2          NXC3H7O           
C3H6OOH1X2        C3H6OOH1X3        C3H6OOH1X3O2      C3KET13           C3H6CHOX1         C3H6CHOX2         C3H6CHOX3         
NXC3H7COCH3       C2H5COCH3         CH3COCH2O2        CH3COCH2O2H       CH3COCH2O         


! iso-Octane
IXC8H18

! R		             
AXC8H17           BXC8H17           CXC8H17           DXC8H17 

! Alkene
IXC8H16 	  JXC8H16 

! Alkenyl radical
IXC8H15 

! RO2
AXC8H17O2         BXC8H17O2         CXC8H17O2         DXC8H17O2         

! RO      
AXC8H17O          DXC8H17O          CXC8H17O          BXC8H17O          

!QOOH
CC8H16OOHXD       CC8H16OOHXB       BC8H16OOHXA       BC8H16OOHXD       
DC8H16OOHXD       AC8H16OOHXA       AC8H16OOHXB       DC8H16OOHXB       CC8H16OOHXA       AC8H16OOHXD       DC8H16OOHXA       BC8H16OOHXC       
DC8H16OOHXC       AC8H16OOHXC       

! ROOH
CXC8H17O2H        AXC8H17O2H        BXC8H17O2H        DXC8H17O2H        

! Cyclic ether        
IC8ETERBC         IC8ETERCD         IC8ETERAA         IC8ETERAB         IC8ETERBD         IC8ETERDD         IC8ETERAC         IC8ETERAD         

! O2QOOH
BC8H16OOHXDO2     AC8H16OOHXAO2     AC8H16OOHXDO2     CC8H16OOHXAO2     DC8H16OOHXAO2     DC8H16OOHXDO2     BC8H16OOHXAO2     DC8H16OOHXBO2     
AC8H16OOHXBO2     AC8H16OOHXCO2     

! KET
IC8KETAB          TXC3H6CHO         IC8KETDB          IC8KETBA               
IC8KETBD          TC4H9COC2H4S      IC8KETAA          IC8KETDD          IC8KETAC          

! POOH
AC8H15GOOHGAB     AC8H15GOOHGAC
DC8H15GOOHGBD     AC8H15GOOHGBD     AC8H15GOOHGAD     BC8H15GOOHGAA     BC8H15GOOHGAD     BC8H15GOOHGDD     BC8H15GOOHGAC     

! Cyclic ether from POOH
CGOOHGETRAA       AGOOHGETRAD       DGOOHGETRAA       DGOOHGETRBD       BGOOHGETRAD       DGOOHGETRAB       BGOOHGETRDD       
BGOOHGETRAA       AGOOHGETRAB       DC8H15GOOHGAB     AGOOHGETRBD       DC8H15GOOHGAD     DGOOHGETRAD       AGOOHGETRAC       AGOOHGETRBC  

! products from POOH + HO2
XC8OOHA           
     
!KET products
CH3CHCHO 
IC3H7COC3H6XT    
DC6H12CHOXD    
HXC6H12CHO 
TXC4H8CHO         

! Cyclic ether products
IXC3H5CHO         IXC3H7CO          TXC4H9CO          PC7H13XO          IXC3H6CHO         IXC3H6CO          YC7H13XY2   

! Intermediates
PXC7H15  	  YXC7H15        
OXC7H14           YXC7H14           XXC7H14           PXC7H14    
NEOXC5H11                             
IXC4H9            TXC4H9            IXC4H8 
IXC3H7   
IXC4H6OH          IXC4H7OH             
IXC3H7CHO         TXC4H9CHO       
CH3COCH3          IC4H7XI1   
IXC4H7            IXC4H7O           CC6H11XB          TC4H8O2HXI        NEOXC6H11         AXC3H5OOH         IXC4H7OOH         IC4H8O2HXT        
NEOXC5H10OOH      IXC3H7O2          C3H6OOH2X1        C3H6OOH2X1O2      C3KET21           IXC4H10           IXC4H9O2          IC4H8O2HXI        
IXC4H8O           IC4H8OOHXIO2      IC4KETII          IXC4H9O           CH3CO3            CH3CO2            TXC4H9O           IXC4H9O2H         
TXC4H9O2          TXC4H9O2H         CH2CCH2OH         O2C4H8CHO         O2HC4H8CO         TXC3H6O2CHO       TXC3H6O2HCO       C3H6OH2X1         
IXC3H5OH          IXC3H5CO          YC7H13OXY2        PC7H13OXO         CC6H11OXB         


! Aromatics 
C5H4CH2           A1XXC6H5          A1C2H2            
A1C2H3            A1C2H             A1C2HY            A1C2H3Y           A2XXC10H7         A2XC10H8          A2YXC10H7         A2C2H2A           
A2C2H2B           A2C2HA            A2C2HB            A2C2HAY           A2C2HBY           A2R5              A2R5X             A2R5C2H2          
A2R5C2H           A2R5C2HY          P2XC12H10         P2XXC12H9         A3XXC14H9         A3XC14H10         A3YXC14H9         A3R5X             
A3R5              A4XC16H10         A4XXC16H9         A4R5              FLTN              C5H6              C5H5              TXC5H5O           
C5H4O             SXC5H5O           C9H8              C9H7              A1CH2             C9H6O             OXC6H4            A1CH3             
A1OH              HOA1CH3           OA1CH3            A1CH2O            A1CH2OH           A1CHO             A1OXC6H5O         A1CH3Y            
A1C2H4            A1C2H5            C8H9O2            C8H8OOH           OC8H7OOH          A1CH3CH3          A1CH3CH2          A1CH3CHO          
A2CH3             A1CHOCH2          A1CHOCHO          A2OH              A2CH2             A2CH2O            A2CHO             A2OXC10H7O        
OC6H4O            

! NOx
N                 NO                N2O               NO2               NH                HNO               NH2               
NNH               CN                NCO               HCN               HOCN              HNCO              H2CN              HCNN              
HCNO              NH3               

END
REACTIONS
H+O2<=>O+OH                              1.040e+14    0.000  15286.09
O+H2<=>H+OH                              3.818e+12    0.000   7947.90
     DUPLICATE
O+H2<=>H+OH                              8.792e+14    0.000  19169.93
     DUPLICATE
H2+OH<=>H2O+H                            2.160e+08    1.510   3429.97
2OH<=>O+H2O                              3.340e+04    2.420  -1929.97
H2+M<=>2H+M                              4.577e+19   -1.400 104380.02
AR/0.00/ H2/2.50/ H2O/12.00/ HE/0.00/ CO/1.90/ CO2/3.80/ 
H2+AR<=>2H+AR                            5.840e+18   -1.100 104380.02
H2+HE<=>2H+HE                            5.840e+18   -1.100 104380.02
2O+M<=>O2+M                              6.165e+15   -0.500      0.00
AR/0.00/ H2/2.50/ H2O/12.00/ HE/0.00/ CO/1.90/ CO2/3.80/ 
2O+AR<=>O2+AR                            1.886e+13    0.000  -1788.00
2O+HE<=>O2+HE                            1.886e+13    0.000  -1788.00
O+H+M<=>OH+M                             4.714e+18   -1.000      0.00
AR/0.75/ H2/2.50/ H2O/12.00/ HE/0.75/ CO/1.90/ CO2/3.80/ 
H2O+M<=>H+OH+M                           6.064e+27   -3.322 120789.91
N2/2.00/ O2/1.50/ H2/3.00/ H2O/0.00/ HE/1.10/ CO/1.90/ CO2/3.80/ 
2H2O<=>H+OH+H2O                          1.006e+26   -2.440 120179.97
H+O2(+M)<=>HO2(+M)                       4.651e+12    0.440      0.00
AR/0.67/ O2/0.78/ H2/2.00/ H2O/14.00/ HE/0.80/ CO/1.90/ CO2/3.80/ 
     LOW  /  6.366e+20   -1.720    524.86 /
!     FCCHECK/     0.5     1e-30    0.5     1e+30      0         0
     TROE/     0.5    1e-30     1e+30        /
HO2+H<=>H2+O2                            2.750e+06    2.090  -1451.00
HO2+H<=>2OH                              7.079e+13    0.000    294.93
HO2+O<=>O2+OH                            2.850e+10    1.000   -723.95
HO2+OH<=>H2O+O2                          2.890e+13    0.000   -496.89
2HO2<=>H2O2+O2                           4.200e+14    0.000  11982.07
     DUPLICATE
2HO2<=>H2O2+O2                           1.300e+11    0.000  -1629.30
     DUPLICATE
H2O2(+M)<=>2OH(+M)                       2.000e+12    0.900  48749.04
N2/1.50/ O2/1.20/ H2/3.70/ H2O/7.50/ HE/0.65/ H2O2/7.70/ CO/2.80/ CO2/1.60/ 
     LOW  /  2.490e+24   -2.300  48750.00 /
!     FCCHECK/    0.57     1e-30   0.43     1e+30      0         0
     TROE/    0.43    1e-30     1e+30        /
H2O2+H<=>H2O+OH                          2.410e+13    0.000   3969.89
H2O2+H<=>HO2+H2                          4.820e+13    0.000   7950.05
H2O2+O<=>OH+HO2                          9.550e+06    2.000   3969.89
H2O2+OH<=>HO2+H2O                        1.740e+12    0.000    318.12
     DUPLICATE
H2O2+OH<=>HO2+H2O                        7.590e+13    0.000   7270.08
     DUPLICATE
CO+O(+M)<=>CO2(+M)                       1.800e+10    0.000   2385.28
AR/0.70/ H2/2.00/ H2O/12.00/ CO/1.75/ CO2/3.60/ 
     LOW  /  1.550e+24   -2.790   4192.16 /
!     FCCHECK/       0         0      0         0      1         0
     TROE/       1     1.00 10000000.00 10000000.00 /
CO+OH<=>CO2+H                            7.046e+04    2.053   -355.64
     DUPLICATE
CO+OH<=>CO2+H                            5.757e+12   -0.664    331.74
     DUPLICATE
CO+O2<=>CO2+O                            1.050e+12    0.000  47700.05
CO+HO2<=>CO2+OH                          1.570e+05    2.180  17942.64
HCO+H<=>CO+H2                            1.200e+14    0.000      0.00
HCO+O<=>CO+OH                            3.000e+13    0.000      0.00
HCO+O<=>CO2+H                            3.000e+13    0.000      0.00
HCO+OH<=>CO+H2O                          3.020e+13    0.000      0.00
HCO+M<=>CO+H+M                           4.748e+11    0.659  14873.80
H2/2.00/ H2O/0.00/ CO/1.75/ CO2/3.60/ 
HCO+O2<=>CO+HO2                          7.580e+12    0.000    409.89
C+OH<=>CO+H                              5.000e+13    0.000      0.00
C+O2<=>CO+O                              5.800e+13    0.000    576.00
CH+H<=>C+H2                              1.650e+14    0.000      0.00
CH+O<=>CO+H                              5.700e+13    0.000      0.00
CH+OH<=>HCO+H                            3.000e+13    0.000      0.00
CH+H2<=>TXCH2+H                          1.080e+14    0.000   3109.46
CH+H2(+M)<=>CH3(+M)                      1.970e+12    0.430   -370.46
AR/0.70/ H2/2.00/ H2O/12.00/ CO/1.75/ CO2/3.60/ CH4/2.00/ C2H6/3.00/ 
     LOW  /  4.820e+25   -2.800    590.34 /
     TROE/   0.578      122      2535      9365 /
CH+H2O<=>CH2O+H                          5.710e+12    0.000   -755.26
CH+O2<=>HCO+O                            6.710e+13    0.000      0.00
CH+CO(+M)<=>HCCO(+M)                     5.000e+13    0.000      0.00
AR/0.70/ H2/2.00/ H2O/12.00/ CO/1.75/ CO2/3.60/ CH4/2.00/ C2H6/3.00/ 
     LOW  /  2.690e+28   -3.740   1935.95 /
     TROE/  0.5757      237      1652      5069 /
CH+CO2<=>HCO+CO                          1.900e+14    0.000  15791.11
CO+H2(+M)<=>CH2O(+M)                     4.300e+07    1.500  79600.86
AR/0.70/ H2/2.00/ H2O/12.00/ CO/1.75/ CO2/3.60/ CH4/2.00/ C2H6/3.00/ 
     LOW  /  5.070e+27   -3.420  84349.90 /
     TROE/   0.932      197      1540     10300 /
HCO+H(+M)<=>CH2O(+M)                     1.090e+12    0.480   -260.52
AR/0.70/ H2/2.00/ H2O/12.00/ CO/1.75/ CO2/3.60/ CH4/2.00/ C2H6/3.00/ 
     LOW  /  2.470e+24   -2.570    425.43 /
     TROE/  0.7824      271      2755      6570 /
TXCH2+H(+M)<=>CH3(+M)                    6.000e+14    0.000      0.00
AR/0.70/ H2/2.00/ H2O/12.00/ CO/1.75/ CO2/3.60/ CH4/2.00/ C2H6/3.00/ 
     LOW  /  1.040e+26   -2.760   1598.95 /
     TROE/   0.562       91      5836      8552 /
TXCH2+O<=>HCO+H                          8.000e+13    0.000      0.00
TXCH2+OH<=>CH2O+H                        2.000e+13    0.000      0.00
TXCH2+OH<=>CH+H2O                        1.130e+07    2.000   2999.52
TXCH2+H2<=>H+CH3                         5.000e+05    2.000   7229.92
TXCH2+O2=>CO2+2H                         5.800e+12    0.000   1500.96
TXCH2+O2<=>CH2O+O                        2.400e+12    0.000   1500.96
TXCH2+O2=>OH+H+CO                        5.000e+12    0.000   1500.96
TXCH2+HO2<=>CH2O+OH                      2.000e+13    0.000      0.00
TXCH2+C<=>C2H+H                          5.000e+13    0.000      0.00
TXCH2+CO(+M)<=>CH2CO(+M)                 8.100e+11    0.500   4510.04
AR/0.70/ H2/2.00/ H2O/12.00/ CO/1.75/ CO2/3.60/ CH4/2.00/ C2H6/3.00/ 
     LOW  /  2.690e+33   -5.110   7096.08 /
     TROE/  0.5907      275      1226      5185 /
TXCH2+CH<=>C2H2+H                        4.000e+13    0.000      0.00
2TXCH2<=>C2H2+H2                         1.600e+15    0.000  11943.12
2TXCH2=>C2H2+2H                          2.000e+14    0.000  10989.48
SXCH2+N2<=>TXCH2+N2                      1.500e+13    0.000    599.90
SXCH2+AR<=>TXCH2+AR                      9.000e+12    0.000    599.90
SXCH2+H<=>CH+H2                          3.000e+13    0.000      0.00
SXCH2+O<=>CO+H2                          1.500e+13    0.000      0.00
SXCH2+O<=>HCO+H                          1.500e+13    0.000      0.00
SXCH2+OH<=>CH2O+H                        3.000e+13    0.000      0.00
SXCH2+H2<=>CH3+H                         7.000e+13    0.000      0.00
SXCH2+O2<=>H+OH+CO                       2.800e+13    0.000      0.00
SXCH2+O2<=>CO+H2O                        1.200e+13    0.000      0.00
SXCH2+H2O(+M)<=>CH3OH(+M)                4.820e+17   -1.160   1144.84
AR/0.70/ H2/2.00/ H2O/12.00/ CO/1.75/ CO2/3.60/ CH4/2.00/ C2H6/3.00/ 
     LOW  /  1.880e+38   -6.360   5040.63 /
     TROE/  0.6027      208      3922     10180 /
SXCH2+H2O<=>TXCH2+H2O                    3.000e+13    0.000      0.00
SXCH2+H2O=>H2+CH2O                       6.820e+10    0.250   -934.51
SXCH2+CO<=>TXCH2+CO                      9.000e+12    0.000      0.00
SXCH2+CO2<=>TXCH2+CO2                    7.000e+12    0.000      0.00
SXCH2+CO2<=>CH2O+CO                      1.400e+13    0.000      0.00
CH2O+H(+M)<=>CH2OH(+M)                   5.400e+11    0.450   3599.43
AR/0.70/ H2/2.00/ H2O/12.00/ CO/1.75/ CO2/3.60/ CH4/2.00/ C2H6/3.00/ 
     LOW  /  1.270e+32   -4.820   6529.64 /
     TROE/  0.7187      103      1291      4160 /
CH2O+H(+M)<=>CH3O(+M)                    5.400e+11    0.450   2600.38
AR/0.70/ H2/2.00/ H2O/12.00/ CO/1.75/ CO2/3.60/ CH4/2.00/ C2H6/3.00/ 
     LOW  /  2.200e+30   -4.800   5559.27 /
     TROE/   0.758       94      1555      4200 /
CH2O+H<=>HCO+H2                          5.740e+07    1.900   2741.40
CH2O+O<=>HCO+OH                          3.900e+13    0.000   3539.67
CH2O+OH<=>HCO+H2O                        3.430e+09    1.180   -446.94
CH2O+O2<=>HCO+HO2                        1.000e+14    0.000  40000.00
CH2O+HO2<=>HCO+H2O2                      5.600e+06    2.000  12000.48
CH2O+CH<=>CH2CO+H                        9.460e+13    0.000   -516.25
CH3+H(+M)<=>CH4(+M)                      6.920e+13    0.180      0.00
AR/0.70/ H2/2.00/ H2O/6.00/ CO/1.50/ CO2/2.00/ CH4/3.00/ C2H6/3.00/ 
     LOW  /  3.470e+38   -6.300   5074.09 /
     TROE/   0.783       74      2941      6964 /
CH3+O<=>CH2O+H                           5.060e+13    0.000      0.00
CH3+O=>H+H2+CO                           3.370e+13    0.000      0.00
CH3+OH(+M)<=>CH3OH(+M)                   2.790e+18   -1.430   1331.26
AR/0.70/ H2/2.00/ H2O/12.00/ CO/1.75/ CO2/3.60/ CH4/2.00/ C2H6/3.00/ 
     LOW  /  4.000e+36   -5.920   3140.54 /
     TROE/   0.412      195      5900      6394 /
CH3+OH<=>TXCH2+H2O                       5.600e+07    1.600   5420.65
CH3+OH=>H2+CH2O                          8.000e+09    0.000  -1754.30
CH3+OH<=>SXCH2+H2O                       6.440e+17   -1.340   1417.30
CH3+O2<=>CH3O+O                          1.380e+13    0.000  30521.03
CH3+O2<=>CH2O+OH                         5.870e+11    0.000  13840.82
CH3+O2(+M)<=>CH3O2(+M)                   1.010e+08    1.630      0.00

     LOW  /  3.820e+31   -4.890   3432.12 /
     TROE/   0.045    880.1   2.5e+09 1.786e+09 /
CH3O2+CH3<=>2CH3O                        1.000e+13    0.000  -1199.81
2CH3O2=>2CH3O+O2                         1.400e+16   -1.610   1859.46
CH3O2+HO2=>CH3O+OH+O2                    2.470e+11    0.000  -1570.27
CH3O2+CH2O=>CH3O+OH+HCO                  1.990e+12    0.000  11670.65
CH3+HO2<=>CH3O+OH                        1.000e+13    0.000      0.00
CH3+HO2<=>CH4+O2                         3.610e+12    0.000      0.00
CH3+H2O2<=>CH4+HO2                       2.450e+04    2.470   5179.25
CH3+C<=>C2H2+H                           5.000e+13    0.000      0.00
CH3+CH<=>C2H3+H                          3.000e+13    0.000      0.00
CH3+HCO<=>CH4+CO                         2.650e+13    0.000      0.00
CH3+CH2O<=>CH4+HCO                       3.320e+03    2.810   5860.42
CH3+TXCH2<=>C2H4+H                       1.000e+14    0.000      0.00
CH3+SXCH2<=>C2H4+H                       1.200e+13    0.000   -571.22
2CH3<=>C2H5+H                            6.840e+12    0.100  10599.90
CH3O+H(+M)<=>CH3OH(+M)                   2.430e+12    0.520     50.19
AR/0.70/ H2/2.00/ H2O/12.00/ CO/1.75/ CO2/3.60/ CH4/2.00/ C2H6/3.00/ 
     LOW  /  4.660e+41   -7.440  14079.83 /
     TROE/     0.7      100     90000     10000 /
CH3O+H<=>CH2OH+H                         4.150e+07    1.630   1924.00
CH3O+H<=>CH2O+H2                         2.000e+13    0.000      0.00
CH3O+H<=>CH3+OH                          1.500e+12    0.500   -109.94
CH3O+H<=>SXCH2+H2O                       2.620e+14   -0.230   1070.75
CH3O+O<=>CH2O+OH                         1.000e+13    0.000      0.00
CH3O+OH<=>CH2O+H2O                       5.000e+12    0.000      0.00
CH3O+O2<=>CH2O+HO2                       4.280e-13    7.600  -3530.11
CH2OH+H(+M)<=>CH3OH(+M)                  1.060e+12    0.500     86.04
AR/0.70/ H2/2.00/ H2O/12.00/ CO/1.75/ CO2/3.60/ CH4/2.00/ C2H6/3.00/ 
     LOW  /  4.360e+31   -4.650   5081.26 /
     TROE/     0.6      100      9000     10000 /
CH2OH+H<=>CH2O+H2                        2.000e+13    0.000      0.00
CH2OH+H<=>CH3+OH                         1.650e+11    0.650   -284.42
CH2OH+H<=>SXCH2+H2O                      3.280e+13   -0.090    609.46
CH2OH+O<=>CH2O+OH                        1.000e+13    0.000      0.00
CH2OH+OH<=>CH2O+H2O                      5.000e+12    0.000      0.00
CH2OH+O2<=>CH2O+HO2                      1.800e+13    0.000    901.05
CH4+H<=>CH3+H2                           6.600e+08    1.620  10841.30
CH4+O<=>CH3+OH                           1.020e+09    1.500   8599.43
CH4+OH<=>CH3+H2O                         1.000e+08    1.600   3119.02
CH4+CH<=>C2H4+H                          6.000e+13    0.000      0.00
CH4+TXCH2<=>2CH3                         2.460e+06    2.000   8269.60
CH4+SXCH2<=>2CH3                         1.600e+13    0.000   -571.22
CH3OH+H<=>CH2OH+H2                       1.700e+07    2.100   4870.94
CH3OH+H<=>CH3O+H2                        4.200e+06    2.100   4870.94
CH3OH+O<=>CH2OH+OH                       3.880e+05    2.500   3099.90
CH3OH+O<=>CH3O+OH                        1.300e+05    2.500   5000.00
CH3OH+OH<=>CH2OH+H2O                     1.440e+06    2.000   -841.30
CH3OH+OH<=>CH3O+H2O                      6.300e+06    2.000   1500.96
CH3OH+CH3<=>CH2OH+CH4                    3.000e+07    1.500   9940.25
CH3OH+CH3<=>CH3O+CH4                     1.000e+07    1.500   9940.25
C2H+H(+M)<=>C2H2(+M)                     1.000e+17   -1.000      0.00
AR/0.70/ H2/2.00/ H2O/12.00/ CO/1.75/ CO2/3.60/ CH4/2.00/ C2H6/3.00/ 
     LOW  /  2.600e+33   -4.800   1900.10 /
     TROE/  0.6464      132      1315      5566 /
C2H+O<=>CH+CO                            5.000e+13    0.000      0.00
C2H+OH<=>H+HCCO                          2.000e+13    0.000      0.00
C2H+O2<=>HCO+CO                          1.000e+13    0.000   -755.26
C2H+H2<=>C2H2+H                          3.310e+06    2.260    901.05
HCCO+H<=>SXCH2+CO                        1.000e+14    0.000      0.00
HCCO+O<=>H+2CO                           1.000e+14    0.000      0.00
HCCO+O2<=>OH+2CO                         4.200e+10    0.000    853.25
HCCO+CH<=>C2H2+CO                        5.000e+13    0.000      0.00
HCCO+TXCH2<=>C2H3+CO                     3.000e+13    0.000      0.00
2HCCO<=>C2H2+2CO                         1.000e+13    0.000      0.00
C2H2+H(+M)<=>C2H3(+M)                    1.710e+10    1.270   2707.93
AR/0.70/ H2/2.00/ H2O/12.00/ CO/1.75/ CO2/3.60/ CH4/2.00/ C2H6/3.00/ 
     LOW  /  6.340e+31   -4.660   3781.07 /
!     FCCHECK/  0.2122    -10212      0         1      0         1
     TROE/  0.2122     1.00    -10212 /
C2H2+O<=>HCCO+H                          8.100e+06    2.000   1900.10
C2H2+O<=>TXCH2+CO                        1.250e+07    2.000   1900.10
C2H+OH<=>C2H2+O                          1.810e+13    0.000      0.00
C2H2+OH<=>C2H+H2O                        2.630e+06    2.140  17060.23
C2H2+OH<=>HCCOH+H                        2.410e+06    2.000  12712.72
C2H2+OH<=>CH2CO+H                        7.530e+06    1.550   2105.64
C2H2+OH<=>CH3+CO                         1.280e+09    0.730   2578.87
CH2CO+H<=>HCCO+H2                        5.000e+13    0.000   7999.52
CH2CO+H<=>CH3+CO                         1.500e+09    1.380    614.24
CH2CO+O<=>HCCO+OH                        1.000e+13    0.000   7999.52
CH2CO+O<=>TXCH2+CO2                      1.750e+12    0.000   1350.38
CH2CO+OH<=>HCCO+H2O                      7.500e+12    0.000   2000.48
HCCOH+H<=>CH2CO+H                        1.000e+13    0.000      0.00
C2H3+H(+M)<=>C2H4(+M)                    6.080e+12    0.270    279.64
AR/0.70/ H2/2.00/ H2O/12.00/ CO/1.75/ CO2/3.60/ CH4/2.00/ C2H6/3.00/ 
     LOW  /  1.400e+30   -3.860   3319.79 /
     TROE/   0.782    207.5      2663      6095 /
C2H3+H<=>C2H2+H2                         3.000e+13    0.000      0.00
C2H3+O<=>CH2CHO                          1.030e+13    0.210   -427.82
C2H3+OH<=>C2H2+H2O                       5.000e+12    0.000      0.00
C2H3+O2<=>C2H2+HO2                       1.340e+06    1.610   -384.80
C2H3+O2<=>CH2CHO+O                       3.030e+11    0.290     11.95
C2H3+O2<=>HCO+CH2O                       4.580e+16   -1.390   1015.77
CH2CHO<=>CH2CO+H                         1.320e+34   -6.570  49457.46
CH2CHO<=>CH3+CO                          6.510e+34   -6.870  47194.07
CH2CHO+O<=>CH2O+HCO                      3.170e+13    0.030   -394.36
CH2CHO+O2=>OH+CO+CH2O                    1.810e+10    0.000      0.00
CH2CHO+O2=>OH+2HCO                       2.350e+10    0.000      0.00
CH2CHO+H<=>CH3+HCO                       2.200e+13    0.000      0.00
CH2CHO+H<=>CH2CO+H2                      1.100e+13    0.000      0.00
CH2CHO+OH<=>H2O+CH2CO                    1.200e+13    0.000      0.00
CH2CHO+OH<=>HCO+CH2OH                    3.010e+13    0.000      0.00
CH3+HCO<=>CH3CHO                         5.000e+13    0.000      0.00
CH3CHO+O<=>CH2CHO+OH                     2.920e+12    0.000   1809.27
CH3CHO+H<=>CH2CHO+H2                     2.050e+09    1.160   2404.40
CH3CHO+H=>CH3+CO+H2                      2.050e+09    1.160   2404.40
CH3CHO+O=>CH3+CO+OH                      2.920e+12    0.000   1809.27
CH3CHO+O2=>CH3+CO+HO2                    3.010e+13    0.000  39149.14
CH3CHO+OH=>CH3+CO+H2O                    2.340e+10    0.730  -1113.77
CH3CHO+HO2=>CH3+CO+H2O2                  3.010e+12    0.000  11924.00
CH3CHO+CH3=>CH3+CO+CH4                   2.720e+06    1.770   5920.17
C2H4(+M)<=>H2C2+H2(+M)                   8.000e+12    0.440  88800.19
AR/0.70/ H2/2.00/ H2O/6.00/ CO/1.75/ CO2/3.60/ CH4/2.00/ C2H6/3.00/ 
     LOW  /  7.000e+50   -9.310  99899.62 /
     TROE/   0.735      180      1035      5417 /
C2H4+H(+M)<=>C2H5(+M)                    1.370e+09    1.460   1355.16
AR/0.70/ H2/2.00/ H2O/12.00/ CO/1.75/ CO2/3.60/ CH4/2.00/ C2H6/3.00/ 
     LOW  /  2.030e+39   -6.640   5769.60 /
     TROE/  -0.569      299     -9147     152.4 /
C2H4+H<=>C2H3+H2                         1.270e+05    2.750  11649.14
C2H4+O<=>CH2CHO+H                        7.660e+09    0.880   1140.06
C2H4+O<=>TXCH2+CH2O                      7.150e+04    2.470    929.73
C2H4+O<=>CH3+HCO                         3.890e+08    1.360    886.71
C2H4+OH<=>C2H3+H2O                       1.310e-01    4.200   -860.42
C2H4+OH<=>C2H5O                          3.750e+36   -7.800   7060.23
C2H4+CH3<=>C2H3+CH4                      2.270e+05    2.000   9199.33
C2H4+CH3(+M)<=>NXC3H7(+M)                2.550e+06    1.600   5700.29
AR/0.70/ H2/2.00/ H2O/12.00/ CO/1.75/ CO2/3.60/ CH4/2.00/ C2H6/3.00/ 
     LOW  /  3.000e+63  -14.600  18169.22 /
     TROE/  0.1894      277      8748      7891 /
C2H5+H(+M)<=>C2H6(+M)                    5.210e+17   -0.990   1579.83
AR/0.70/ H2/2.00/ H2O/12.00/ CO/1.75/ CO2/3.60/ CH4/2.00/ C2H6/3.00/ 
     LOW  /  1.990e+41   -7.080   6684.99 /
     TROE/  0.8422      125      2219      6882 /
C2H5+H<=>C2H4+H2                         2.000e+12    0.000      0.00
C2H5+CH3<=>C2H4+CH4                      1.180e+04    2.450   2920.65
C2H5+O<=>C2H5O                           3.170e+13    0.030   -394.36
C2H5O<=>CH3+CH2O                         1.320e+20   -2.020  20750.48
C2H5O<=>CH3CHO+H                         5.450e+15   -0.690  22229.92
C2H5O+O2<=>CH3CHO+HO2                    2.290e+10    0.000    874.76
C2H5+O2<=>C2H4+HO2                       1.920e+07    1.020  -2033.94
C3H8(+M)<=>C2H5+CH3(+M)                  1.290e+37   -5.840  97387.67
AR/0.70/ H2/2.00/ H2O/12.00/ CO/1.75/ CO2/3.60/ CH4/2.00/ C2H6/3.00/ 
     LOW  /  5.640e+74  -15.740  98718.93 /
     TROE/    0.31       50      3000      9000 /
C2H6(+M)<=>2CH3(+M)                      1.880e+50   -9.720 107342.26
AR/0.70/ H2/2.00/ H2O/12.00/ CO/1.75/ CO2/3.60/ CH4/2.00/ C2H6/3.00/ 
     LOW  /  3.720e+65  -13.140 101579.83 /
     TROE/    0.39      100      1900      6000 /
C2H6+H<=>C2H5+H2                         1.700e+05    2.700   5740.92
C2H6+O<=>C2H5+OH                         3.170e+01    3.800   3130.98
C2H6+OH<=>C2H5+H2O                       1.610e+06    2.220    740.92